INIT MASTER(S)
NASTRAN SYSTEM(442)=-1,SYSTEM(319)=1
ID Cantilever,FEMAP
SOL SESTATIC
CEND
  TITLE = Test
  ECHO = NONE
  DISPLACEMENT(PLOT) = ALL
  SPCFORCE(PLOT) = ALL
  OLOAD(PLOT) = ALL
  FORCE(PLOT,CORNER) = ALL
  STRESS(PLOT,CORNER) = ALL
  SPC = 1
  LOAD = 1
BEGIN BULK
$ ***************************************************************************
$   Written by : Femap
$   Version    : 2024.2.1
$   Translator : Simcenter Nastran
$   From Model : C:\Users\miguel.ibarra\Documents\FEMAP_Workspace\Cantilever_Test\Cantilever_Test.modfem
$   Date       : Fri Feb 14 11:49:11 2025
$   Output To  : C:\Users\miguel.ibarra\Documents\FEMAP_Workspace\Cantilever_Test\
$ ***************************************************************************
$
PARAM,PRGPST,NO
PARAM,POST,-1
PARAM,OGEOM,NO
PARAM,AUTOSPC,YES
PARAM,K6ROT,100.
PARAM,GRDPNT,0
OUTPUT,HDF5
CORD2C         1       0      0.      0.      0.      0.      0.      1.+FEMAPC1
+FEMAPC1      1.      0.      1.        
CORD2S         2       0      0.      0.      0.      0.      0.      1.+FEMAPC2
+FEMAPC2      1.      0.      1.        
$ Femap Load Set 1 : Test
FORCE          1      12       0      1.      0.      0.    100.
$ Femap Constraint Set 1 : Untitled
SPC1           1   12345       1
SPC1           1   12345      23
SPC1           1   12345      24
$ Femap Property 1 : PLATE Property
PSHELL         1       1      .1       1               1              0.
$ Femap Material 1 : ISOTROPIC Material
MAT1           1  1.03+7             .33      0.      0.      0.        
GRID           1       0      0.      1.      0.       0
GRID           2       0      .5      1.      0.       0
GRID           3       0      1.      1.      0.       0
GRID           4       0     1.5      1.      0.       0
GRID           5       0      2.      1.      0.       0
GRID           6       0     2.5      1.      0.       0
GRID           7       0      3.      1.      0.       0
GRID           8       0     3.5      1.      0.       0
GRID           9       0      4.      1.      0.       0
GRID          10       0     4.5      1.      0.       0
GRID          11       0      5.      1.      0.       0
GRID          12       0      5.      .5      0.       0
GRID          13       0      5.      0.      0.       0
GRID          14       0     4.5      0.      0.       0
GRID          15       0      4.      0.      0.       0
GRID          16       0     3.5      0.      0.       0
GRID          17       0      3.      0.      0.       0
GRID          18       0     2.5      0.      0.       0
GRID          19       0      2.      0.      0.       0
GRID          20       0     1.5      0.      0.       0
$ ... 13 like lines cut
CQUAD4         1       1       1       2      25      24                
CQUAD4         2       1       2       3      26      25                
CQUAD4         3       1       3       4      27      26                
CQUAD4         4       1       4       5      28      27                
CQUAD4         5       1       5       6      29      28                
CQUAD4         6       1       6       7      30      29                
CQUAD4         7       1       7       8      31      30                
CQUAD4         8       1       8       9      32      31                
CQUAD4         9       1       9      10      33      32                
CQUAD4        10       1      10      11      12      33                
CQUAD4        11       1      24      25      22      23                
CQUAD4        12       1      25      26      21      22                
CQUAD4        13       1      26      27      20      21                
CQUAD4        14       1      27      28      19      20                
CQUAD4        15       1      28      29      18      19                
CQUAD4        16       1      29      30      17      18                
CQUAD4        17       1      30      31      16      17                
CQUAD4        18       1      31      32      15      16                
CQUAD4        19       1      32      33      14      15                
CQUAD4        20       1      33      12      13      14                
ENDDATA 70318e45
